IJAU11/SegmentosMT_2022124950_IJAU11_--MBS-1--T--.dss
New "Line.SMT_216580" phases=3 bus1="519883B.1.2.3" bus2="166573327.1.2.3" linecode="CAB103_3_3_3" length=0.04303 units=km
New "Line.SMT_216601" phases=3 bus1="519897B.1.2.3" bus2="519883B.1.2.3" linecode="CAB103_3_3_3" length=0.04247 units=km
New "Line.SMT_216615" phases=3 bus1="167148539.1.2.3" bus2="519897B.1.2.3" linecode="CAB103_3_3_3" length=0.04116 units=km
New "Line.SMT_216629" phases=3 bus1="519925B.1.2.3" bus2="167148539.1.2.3" linecode="CAB103_3_3_3" length=0.03001 units=km
New "Line.SMT_216636" phases=3 bus1="519932B.1.2.3" bus2="519953B.1.2.3" linecode="CAB103_3_3_3" length=0.02562 units=km
New "Line.SMT_216643" phases=3 bus1="167148538.1.2.3" bus2="519932B.1.2.3" linecode="CAB103_3_3_3" length=0.03637 units=km
New "Line.SMT_216650" phases=3 bus1="167148537.1.2.3" bus2="167148538.1.2.3" linecode="CAB102_3_3_3" length=0.04256 units=km
New "Line.SMT_216657" phases=3 bus1="519953B.1.2.3" bus2="519925B.1.2.3" linecode="CAB103_3_3_3" length=0.02550 units=km
New "Line.SMT_216748" phases=3 bus1="121962873.1.2.3" bus2="121962880.1.2.3" linecode="CAB102_3_3_3" length=0.03054 units=km
New "Line.SMT_216755" phases=3 bus1="121962873.1.2.3" bus2="520450B.1.2.3" linecode="CAB102_3_3_3" length=0.01803 units=km
New "Line.SMT_216762" phases=3 bus1="520226B.1.2.3" bus2="121962873.1.2.3" linecode="CAB102_3_3_3" length=0.02582 units=km
New "Line.SMT_216769" phases=3 bus1="520233B.1.2.3" bus2="520226B.1.2.3" linecode="CAB102_3_3_3" length=0.02781 units=km
New "Line.SMT_216916" phases=3 bus1="520450B.1.2.3" bus2="520464B.1.2.3" linecode="CAB102_3_3_3" length=0.02342 units=km
New "Line.SMT_216923" phases=3 bus1="520464B.1.2.3" bus2="520471B.1.2.3" linecode="CAB102_3_3_3" length=0.02248 units=km
New "Line.SMT_216930" phases=3 bus1="520471B.1.2.3" bus2="121962887.1.2.3" linecode="CAB102_3_3_3" length=0.02917 units=km
New "Line.SMT_217294" phases=3 bus1="521066B.1.2.3" bus2="521080B.1.2.3" linecode="CAB102_3_3_3" length=0.03941 units=km
New "Line.SMT_217301" phases=3 bus1="521080B.1.2.3" bus2="121962901.1.2.3" linecode="CAB102_3_3_3" length=0.03678 units=km
New "Line.SMT_217308" phases=1 bus1="121962901.2" bus2="521115B.2" linecode="CAB102_3_1_1" length=0.03771 units=km
New "Line.SMT_217315" phases=1 bus1="521115B.2" bus2="521129B.2" linecode="CAB102_3_1_1" length=0.03641 units=km
New "Line.SMT_217322" phases=1 bus1="521129B.2" bus2="521143B.2" linecode="CAB102_3_1_1" length=0.03103 units=km
New "Line.SMT_217329" phases=1 bus1="521143B.2" bus2="121962908.2" linecode="CAB102_3_1_1" length=0.03048 units=km
New "Line.SMT_217336" phases=3 bus1="121962866.1.2.3" bus2="520233B.1.2.3" linecode="CAB102_3_3_3" length=0.02730 units=km
New "Line.SMT_217343" phases=3 bus1="121962894.1.2.3" bus2="521185B.1.2.3" linecode="CAB102_3_3_3" length=0.00633 units=km
New "Line.SMT_217350" phases=3 bus1="521185B.1.2.3" bus2="521066B.1.2.3" linecode="CAB102_3_3_3" length=0.03455 units=km
New "Line.SMT_217357" phases=3 bus1="521192B.1.2.3" bus2="121962866.1.2.3" linecode="CAB102_3_3_3" length=0.03363 units=km
New "Line.SMT_217364" phases=3 bus1="121962852.1.2.3" bus2="521192B.1.2.3" linecode="CAB102_3_3_3" length=0.03232 units=km
New "Line.SMT_217371" phases=3 bus1="521206B.1.2.3" bus2="121962845.1.2.3" linecode="CAB102_3_3_3" length=0.03197 units=km
New "Line.SMT_217378" phases=3 bus1="521213B.1.2.3" bus2="121962852.1.2.3" linecode="CAB102_3_3_3" length=0.02601 units=km
New "Line.SMT_217385" phases=3 bus1="521220B.1.2.3" bus2="521227B.1.2.3" linecode="CAB102_3_3_3" length=0.03548 units=km
New "Line.SMT_217392" phases=3 bus1="521227B.1.2.3" bus2="521822B.1.2.3" linecode="CAB102_3_3_3" length=0.03325 units=km
New "Line.SMT_217518" phases=3 bus1="121962803.1.2.3" bus2="163193475.1.2.3" linecode="CAB102_3_3_3" length=0.04033 units=km
New "Line.SMT_217525" phases=3 bus1="121962838.1.2.3" bus2="521206B.1.2.3" linecode="CAB102_3_3_3" length=0.01361 units=km
New "Line.SMT_217532" phases=3 bus1="180756509.1.2.3" bus2="121962803.1.2.3" linecode="CAB102_3_3_3" length=0.04051 units=km
New "Line.SMT_217539" phases=3 bus1="180756509.1.2.3" bus2="521535B.1.2.3" linecode="CAB102_3_3_3" length=0.03548 units=km
New "Line.SMT_217546" phases=3 bus1="521549B.1.2.3" bus2="521535B.1.2.3" linecode="CAB102_3_3_3" length=0.03548 units=km
New "Line.SMT_217686" phases=3 bus1="521822B.1.2.3" bus2="521836B.1.2.3" linecode="CAB102_3_3_3" length=0.03140 units=km
New "Line.SMT_217693" phases=3 bus1="521836B.1.2.3" bus2="121962859.1.2.3" linecode="CAB102_3_3_3" length=0.02286 units=km
New "Line.SMT_217770" phases=1 bus1="522060B.2" bus2="522067B.2" linecode="CAB102_3_1_1" length=0.03455 units=km
New "Line.SMT_217777" phases=1 bus1="522067B.2" bus2="522417B.2" linecode="CAB102_3_1_1" length=0.00825 units=km
New "Line.SMT_217784" phases=1 bus1="522074B.2" bus2="121962922.2" linecode="CAB102_3_1_1" length=0.03164 units=km
New "Line.SMT_217791" phases=1 bus1="121962908.2" bus2="522053B.2" linecode="CAB102_3_1_1" length=0.00633 units=km
New "Line.SMT_217798" phases=1 bus1="121962908.2" bus2="522060B.2" linecode="CAB102_3_1_1" length=0.00500 units=km
New "Line.SMT_217805" phases=1 bus1="121962908.2" bus2="522074B.2" linecode="CAB102_3_1_1" length=0.02418 units=km
New "Line.SMT_217889" phases=1 bus1="522375B.2" bus2="121962915.2" linecode="CAB102_3_1_1" length=0.03140 units=km
New "Line.SMT_217896" phases=1 bus1="522417B.2" bus2="522361B.2" linecode="CAB102_3_1_1" length=0.01487 units=km
New "Line.SMT_217903" phases=1 bus1="522417B.2" bus2="522368B.2" linecode="CAB102_3_1_1" length=0.01836 units=km
New "Line.SMT_217910" phases=1 bus1="522417B.2" bus2="522375B.2" linecode="CAB102_3_1_1" length=0.02155 units=km
New "Line.SMT_218554" phases=3 bus1="523418B.1.2.3" bus2="521549B.1.2.3" linecode="CAB102_3_3_3" length=0.03548 units=km
New "Line.SMT_218561" phases=3 bus1="523418B.1.2.3" bus2="523425B.1.2.3" linecode="CAB102_3_3_3" length=0.03355 units=km
New "Line.SMT_218568" phases=3 bus1="523425B.1.2.3" bus2="180756508.1.2.3" linecode="CAB102_3_3_3" length=0.03637 units=km
New "Line.SMT_218575" phases=3 bus1="180756508.1.2.3" bus2="523439B.1.2.3" linecode="CAB102_3_3_3" length=0.03681 units=km
New "Line.SMT_218582" phases=3 bus1="523439B.1.2.3" bus2="523446B.1.2.3" linecode="CAB102_3_3_3" length=0.03562 units=km
New "Line.SMT_218589" phases=3 bus1="523446B.1.2.3" bus2="708834B.1.2.3" linecode="CAB102_3_3_3" length=0.01346 units=km
New "Line.SMT_219485" phases=3 bus1="180756506.1.2.3" bus2="180756507.1.2.3" linecode="CAB102_3_3_3" length=0.02203 units=km
New "Line.SMT_219492" phases=3 bus1="180756506.1.2.3" bus2="708834B.1.2.3" linecode="CAB102_3_3_3" length=0.01922 units=km
New "Line.SMT_219506" phases=3 bus1="180756507.1.2.3" bus2="525721B.1.2.3" linecode="CAB102_3_3_3" length=0.03663 units=km
New "Line.SMT_219513" phases=3 bus1="525231B.1.2.3" bus2="2956597B.1.2.3" linecode="CABA06_3_3_3" length=0.01487 units=km
New "Line.SMT_219590" phases=3 bus1="121962684.1.2.3" bus2="150067479.1.2.3" linecode="CABA08_3_3_3" length=0.03303 units=km
New "Line.SMT_219597" phases=3 bus1="121962971.1.2.3" bus2="121962978.1.2.3" linecode="CAB902_4_3_3" length=0.02386 units=km
New "Line.SMT_219604" phases=3 bus1="150067483.1.2.3" bus2="121962684.1.2.3" linecode="CABA08_3_3_3" length=0.03403 units=km
New "Line.SMT_219730" phases=3 bus1="525721B.1.2.3" bus2="525728B.1.2.3" linecode="CAB102_3_3_3" length=0.03385 units=km
New "Line.SMT_219737" phases=3 bus1="525728B.1.2.3" bus2="180756510.1.2.3" linecode="CAB102_3_3_3" length=0.03385 units=km
New "Line.SMT_219744" phases=3 bus1="121959681.1.2.3" bus2="121959709.1.2.3" linecode="CAB103_3_3_3" length=0.00707 units=km
New "Line.SMT_219751" phases=3 bus1="525931B.1.2.3" bus2="525917B.1.2.3" linecode="CAB103_3_3_3" length=0.03537 units=km
New "Line.SMT_219758" phases=3 bus1="525931B.1.2.3" bus2="526309B.1.2.3" linecode="CAB103_3_3_3" length=0.03061 units=km
New "Line.SMT_219765" phases=3 bus1="525938B.1.2.3" bus2="175656173.1.2.3" linecode="CAB103_3_3_3" length=0.03750 units=km
New "Line.SMT_219772" phases=3 bus1="121959709.1.2.3" bus2="121959716.1.2.3" linecode="CAB103_3_3_3" length=0.03257 units=km
New "Line.SMT_219779" phases=3 bus1="121959709.1.2.3" bus2="525910B.1.2.3" linecode="CAB103_3_3_3" length=0.00906 units=km
New "Line.SMT_219786" phases=3 bus1="121959709.1.2.3" bus2="525917B.1.2.3" linecode="CAB103_3_3_3" length=0.02089 units=km
New "Line.SMT_219814" phases=3 bus1="526057B.1.2.3" bus2="526071B.1.2.3" linecode="CABA08_3_3_3" length=0.04081 units=km
New "Line.SMT_219821" phases=3 bus1="526071B.1.2.3" bus2="526085B.1.2.3" linecode="CABA08_3_3_3" length=0.04179 units=km
New "Line.SMT_219828" phases=3 bus1="526078B.1.2.3" bus2="176026882.1.2.3" linecode="CABA08_3_3_3" length=0.01582 units=km
New "Line.SMT_219835" phases=3 bus1="526085B.1.2.3" bus2="526911B.1.2.3" linecode="CABA08_3_3_3" length=0.04260 units=km
New "Line.SMT_219842" phases=3 bus1="526092B.1.2.3" bus2="526078B.1.2.3" linecode="CABA08_3_3_3" length=0.03397 units=km
New "Line.SMT_219849" phases=3 bus1="175656171.1.2.3" bus2="526043B.1.2.3" linecode="CABA08_3_3_3" length=0.02418 units=km
New "Line.SMT_219856" phases=3 bus1="175656171.1.2.3" bus2="2548511.1.2.3" linecode="CABA08_3_3_3" length=0.00609 units=km
New "Line.SMT_219863" phases=3 bus1="175656171.1.2.3" bus2="526057B.1.2.3" linecode="CABA08_3_3_3" length=0.01880 units=km
New "Line.SMT_219870" phases=3 bus1="175656170.1.2.3" bus2="175656171.1.2.3" linecode="CABA08_3_3_3" length=0.00985 units=km
New "Line.SMT_219912" phases=3 bus1="526309B.1.2.3" bus2="121959723.1.2.3" linecode="CAB103_3_3_3" length=0.02747 units=km
New "Line.SMT_219919" phases=3 bus1="526365B.1.2.3" bus2="708848B.1.2.3" linecode="CAB102_3_3_3" length=0.03473 units=km
New "Line.SMT_219926" phases=3 bus1="526393B.1.2.3" bus2="526365B.1.2.3" linecode="CAB102_3_3_3" length=0.03891 units=km
New "Line.SMT_219933" phases=3 bus1="180756505.1.2.3" bus2="526393B.1.2.3" linecode="CAB102_3_3_3" length=0.03540 units=km
New "Line.SMT_219940" phases=3 bus1="526421B.1.2.3" bus2="180756505.1.2.3" linecode="CAB102_3_3_3" length=0.03203 units=km
New "Line.SMT_219947" phases=3 bus1="180756504.1.2.3" bus2="526421B.1.2.3" linecode="CAB102_3_3_3" length=0.04581 units=km
New "Line.SMT_220157" phases=3 bus1="526869B.1.2.3" bus2="526862B.1.2.3" linecode="CABA08_3_3_3" length=0.02767 units=km
New "Line.SMT_220164" phases=3 bus1="150067477.1.2.3" bus2="526869B.1.2.3" linecode="CABA08_3_3_3" length=0.02475 units=km
New "Line.SMT_220171" phases=3 bus1="150067477.1.2.3" bus2="150067480.1.2.3" linecode="CABA08_3_3_3" length=0.02434 units=km
New "Line.SMT_220178" phases=3 bus1="150067477.1.2.3" bus2="150067476.1.2.3" linecode="CABA08_3_3_3" length=0.01301 units=km
New "Line.SMT_220192" phases=3 bus1="181825903.1.2.3" bus2="527107B.1.2.3" linecode="CAB102_3_3_3" length=0.03355 units=km
New "Line.SMT_220199" phases=3 bus1="526911B.1.2.3" bus2="526918B.1.2.3" linecode="CABA08_3_3_3" length=0.04062 units=km
New "Line.SMT_220206" phases=3 bus1="526918B.1.2.3" bus2="175656172.1.2.3" linecode="CABA08_3_3_3" length=0.02929 units=km
New "Line.SMT_220213" phases=3 bus1="175656174.1.2.3" bus2="526932B.1.2.3" linecode="CABA08_3_3_3" length=0.04358 units=km
New "Line.SMT_220220" phases=3 bus1="526932B.1.2.3" bus2="121959702.1.2.3" linecode="CABA08_3_3_3" length=0.03141 units=km
New "Line.SMT_220227" phases=3 bus1="160016877.1.2.3" bus2="526946B.1.2.3" linecode="CABA08_3_3_3" length=0.02237 units=km
New "Line.SMT_220234" phases=3 bus1="526946B.1.2.3" bus2="160016878.1.2.3" linecode="CABA08_3_3_3" length=0.03438 units=km
New "Line.SMT_220241" phases=3 bus1="526960B.1.2.3" bus2="527037B.1.2.3" linecode="CAB103_3_3_3" length=0.01432 units=km
New "Line.SMT_220248" phases=3 bus1="527002B.1.2.3" bus2="175656175.1.2.3" linecode="CAB103_3_3_3" length=0.03651 units=km
New "Line.SMT_220255" phases=3 bus1="527037B.1.2.3" bus2="527002B.1.2.3" linecode="CAB103_3_3_3" length=0.02533 units=km
New "Line.SMT_220262" phases=3 bus1="175656172.1.2.3" bus2="525938B.1.2.3" linecode="CAB103_3_3_3" length=0.01020 units=km
New "Line.SMT_220269" phases=3 bus1="175656172.1.2.3" bus2="175656174.1.2.3" linecode="CABA08_3_3_3" length=0.01141 units=km
New "Line.SMT_220276" phases=3 bus1="175656172.1.2.3" bus2="526960B.1.2.3" linecode="CAB103_3_3_3" length=0.03179 units=km
New "Line.SMT_220283" phases=3 bus1="527086B.1.2.3" bus2="180756503.1.2.3" linecode="CAB102_3_3_3" length=0.03735 units=km
New "Line.SMT_220290" phases=3 bus1="181825905.1.2.3" bus2="527086B.1.2.3" linecode="CAB102_3_3_3" length=0.02475 units=km
New "Line.SMT_220297" phases=3 bus1="527107B.1.2.3" bus2="527121B.1.2.3" linecode="CAB102_3_3_3" length=0.02509 units=km
New "Line.SMT_220304" phases=3 bus1="181825904.1.2.3" bus2="181825905.1.2.3" linecode="CAB102_3_3_3" length=0.03300 units=km
New "Line.SMT_220311" phases=3 bus1="527121B.1.2.3" bus2="181825904.1.2.3" linecode="CAB102_3_3_3" length=0.03403 units=km
New "Line.SMT_220346" phases=3 bus1="527261B.1.2.3" bus2="147739407.1.2.3" linecode="CAB103_3_3_3" length=0.03108 units=km
New "Line.SMT_220353" phases=3 bus1="527282B.1.2.3" bus2="527261B.1.2.3" linecode="CAB103_3_3_3" length=0.03624 units=km
New "Line.SMT_220360" phases=3 bus1="527289B.1.2.3" bus2="527282B.1.2.3" linecode="CAB103_3_3_3" length=0.03490 units=km
New "Line.SMT_220367" phases=3 bus1="147739400.1.2.3" bus2="527289B.1.2.3" linecode="CAB103_3_3_3" length=0.04072 units=km
New "Line.SMT_220374" phases=3 bus1="160016878.1.2.3" bus2="527317B.1.2.3" linecode="CABA08_3_3_3" length=0.03964 units=km
New "Line.SMT_220381" phases=3 bus1="527317B.1.2.3" bus2="527450B.1.2.3" linecode="CABA08_3_3_3" length=0.01514 units=km
New "Line.SMT_220388" phases=3 bus1="527359B.1.2.3" bus2="525231B.1.2.3" linecode="CABA06_3_3_3" length=0.03088 units=km
New "Line.SMT_220395" phases=3 bus1="527366B.1.2.3" bus2="527359B.1.2.3" linecode="CABA06_3_3_3" length=0.02847 units=km
New "Line.SMT_220402" phases=3 bus1="527373B.1.2.3" bus2="527366B.1.2.3" linecode="CABA06_3_3_3" length=0.03164 units=km
New "Line.SMT_220409" phases=3 bus1="160316783.1.2.3" bus2="527373B.1.2.3" linecode="CABA06_3_3_3" length=0.03537 units=km
New "Line.SMT_220416" phases=3 bus1="527387B.1.2.3" bus2="527401B.1.2.3" linecode="CABA08_3_3_3" length=0.03931 units=km
New "Line.SMT_220423" phases=3 bus1="155704229.1.2.3" bus2="148702936.1.2.3" linecode="CABA08_3_3_3" length=0.03718 units=km
New "Line.SMT_220430" phases=3 bus1="527401B.1.2.3" bus2="527408B.1.2.3" linecode="CABA08_3_3_3" length=0.03849 units=km
New "Line.SMT_220437" phases=3 bus1="527408B.1.2.3" bus2="527422B.1.2.3" linecode="CABA08_3_3_3" length=0.04006 units=km
New "Line.SMT_220444" phases=3 bus1="155704228.1.2.3" bus2="155704229.1.2.3" linecode="CABA08_3_3_3" length=0.03140 units=km
New "Line.SMT_220451" phases=3 bus1="155704228.1.2.3" bus2="527429B.1.2.3" linecode="CABA08_3_3_3" length=0.03415 units=km
New "Line.SMT_220458" phases=3 bus1="527422B.1.2.3" bus2="155704228.1.2.3" linecode="CABA08_3_3_3" length=0.04033 units=km
New "Line.SMT_220465" phases=3 bus1="527436B.1.2.3" bus2="527429B.1.2.3" linecode="CABA08_3_3_3" length=0.02844 units=km
New "Line.SMT_220472" phases=3 bus1="527436B.1.2.3" bus2="155704227.1.2.3" linecode="CABA08_3_3_3" length=0.04316 units=km
New "Line.SMT_220479" phases=3 bus1="527450B.1.2.3" bus2="160016879.1.2.3" linecode="CABA08_3_3_3" length=0.02160 units=km
New "Line.SMT_220486" phases=3 bus1="160016879.1.2.3" bus2="527464B.1.2.3" linecode="CABA08_3_3_3" length=0.03537 units=km
New "Line.SMT_220493" phases=3 bus1="527464B.1.2.3" bus2="160016880.1.2.3" linecode="CABA08_3_3_3" length=0.00447 units=km
New "Line.SMT_220500" phases=3 bus1="527478B.1.2.3" bus2="527709B.1.2.3" linecode="CABA08_3_3_3" length=0.02908 units=km
New "Line.SMT_220507" phases=3 bus1="527604B.1.2.3" bus2="147740163.1.2.3" linecode="CAB103_3_3_3" length=0.03069 units=km
New "Line.SMT_220514" phases=3 bus1="527625B.1.2.3" bus2="527604B.1.2.3" linecode="CAB103_3_3_3" length=0.03271 units=km
New "Line.SMT_220521" phases=3 bus1="527632B.1.2.3" bus2="527625B.1.2.3" linecode="CAB103_3_3_3" length=0.00781 units=km
New "Line.SMT_220528" phases=3 bus1="527716B.1.2.3" bus2="121959779.1.2.3" linecode="CABA08_3_3_3" length=0.03141 units=km
New "Line.SMT_220535" phases=3 bus1="527723B.1.2.3" bus2="121959765.1.2.3" linecode="CABA08_3_3_3" length=0.02507 units=km
New "Line.SMT_220542" phases=3 bus1="527723B.1.2.3" bus2="160016881.1.2.3" linecode="CABA08_3_3_3" length=0.01880 units=km
New "Line.SMT_220549" phases=3 bus1="159512862.1.2.3" bus2="527793B.1.2.3" linecode="CABA08_3_3_3" length=0.05373 units=km
New "Line.SMT_220556" phases=3 bus1="128399023.1.2.3" bus2="527772B.1.2.3" linecode="CAB103_3_3_3" length=0.02929 units=km
New "Line.SMT_220563" phases=3 bus1="527772B.1.2.3" bus2="529991B.1.2.3" linecode="CAB103_3_3_3" length=0.02845 units=km
New "Line.SMT_220577" phases=3 bus1="160016881.1.2.3" bus2="527709B.1.2.3" linecode="CABA08_3_3_3" length=0.01030 units=km
New "Line.SMT_220584" phases=3 bus1="160016881.1.2.3" bus2="527716B.1.2.3" linecode="CABA08_3_3_3" length=0.00641 units=km
New "Line.SMT_220591" phases=3 bus1="527793B.1.2.3" bus2="527800B.1.2.3" linecode="CABA08_3_3_3" length=0.04180 units=km
New "Line.SMT_220598" phases=3 bus1="527800B.1.2.3" bus2="159512863.1.2.3" linecode="CABA08_3_3_3" length=0.02643 units=km
New "Line.SMT_220605" phases=3 bus1="176026881.1.2.3" bus2="526092B.1.2.3" linecode="CABA08_3_3_3" length=0.03438 units=km
New "Line.SMT_220612" phases=3 bus1="176026881.1.2.3" bus2="527835B.1.2.3" linecode="CABA08_3_3_3" length=0.03375 units=km
New "Line.SMT_220619" phases=3 bus1="527835B.1.2.3" bus2="527884B.1.2.3" linecode="CABA08_3_3_3" length=0.01845 units=km
New "Line.SMT_220626" phases=3 bus1="2548847.1.2.3" bus2="527884B.1.2.3" linecode="CABA08_3_3_3" length=0.01030 units=km
New "Line.SMT_220633" phases=3 bus1="527856B.1.2.3" bus2="2548847.1.2.3" linecode="CABA08_3_3_3" length=0.02747 units=km
New "Line.SMT_220731" phases=3 bus1="527926B.1.2.3" bus2="527856B.1.2.3" linecode="CABA08_3_3_3" length=0.06201 units=km
New "Line.SMT_220857" phases=3 bus1="160371930.1.2.3" bus2="528115B.1.2.3" linecode="CAB103_3_3_3" length=0.03215 units=km
New "Line.SMT_220864" phases=3 bus1="528115B.1.2.3" bus2="528129B.1.2.3" linecode="CAB103_3_3_3" length=0.03315 units=km
New "Line.SMT_220871" phases=3 bus1="160371924.1.2.3" bus2="528129B.1.2.3" linecode="CAB103_3_3_3" length=0.03723 units=km
New "Line.SMT_220878" phases=3 bus1="155704227.1.2.3" bus2="528325B.1.2.3" linecode="CABA08_3_3_3" length=0.03809 units=km
New "Line.SMT_220885" phases=3 bus1="528325B.1.2.3" bus2="528332B.1.2.3" linecode="CABA08_3_3_3" length=0.03229 units=km
New "Line.SMT_220892" phases=3 bus1="528332B.1.2.3" bus2="2548581.1.2.3" linecode="CABA08_3_3_3" length=0.03545 units=km
New "Line.SMT_220941" phases=3 bus1="147740156.1.2.3" bus2="527632B.1.2.3" linecode="CAB103_3_3_3" length=0.03291 units=km
New "Line.SMT_220948" phases=3 bus1="528549B.1.2.3" bus2="147740156.1.2.3" linecode="CAB103_3_3_3" length=0.02880 units=km
New "Line.SMT_220955" phases=3 bus1="528549B.1.2.3" bus2="528556B.1.2.3" linecode="CAB103_3_3_3" length=0.03291 units=km
New "Line.SMT_220962" phases=3 bus1="147740149.1.2.3" bus2="121959877.1.2.3" linecode="CAB103_3_3_3" length=0.00600 units=km
New "Line.SMT_220969" phases=3 bus1="147740149.1.2.3" bus2="528556B.1.2.3" linecode="CAB103_3_3_3" length=0.03010 units=km
New "Line.SMT_220976" phases=3 bus1="147740142.1.2.3" bus2="147740149.1.2.3" linecode="CAB103_3_3_3" length=0.04051 units=km
New "Line.SMT_221039" phases=3 bus1="528640B.1.2.3" bus2="528647B.1.2.3" linecode="CAB103_3_3_3" length=0.03179 units=km
New "Line.SMT_221046" phases=3 bus1="528647B.1.2.3" bus2="128332390.1.2.3" linecode="CAB103_3_3_3" length=0.03141 units=km
New "Line.SMT_221053" phases=3 bus1="528668B.1.2.3" bus2="528640B.1.2.3" linecode="CAB103_3_3_3" length=0.03116 units=km
New "Line.SMT_221060" phases=3 bus1="159512863.1.2.3" bus2="528759B.1.2.3" linecode="CABA08_3_3_3" length=0.01790 units=km
New "Line.SMT_221067" phases=3 bus1="528759B.1.2.3" bus2="528780B.1.2.3" linecode="CABA08_3_3_3" length=0.02595 units=km
New "Line.SMT_221074" phases=3 bus1="528780B.1.2.3" bus2="528787B.1.2.3" linecode="CABA08_3_3_3" length=0.03132 units=km
New "Line.SMT_221081" phases=3 bus1="528787B.1.2.3" bus2="159512864.1.2.3" linecode="CABA08_3_3_3" length=0.00721 units=km
New "Line.SMT_221088" phases=3 bus1="528794B.1.2.3" bus2="121959814.1.2.3" linecode="CABA08_3_3_3" length=0.02732 units=km
New "Line.SMT_221095" phases=3 bus1="121959926.1.2.3" bus2="528808B.1.2.3" linecode="CAB102_3_3_3" length=0.02684 units=km
New "Line.SMT_221102" phases=3 bus1="528808B.1.2.3" bus2="530061B.1.2.3" linecode="CAB102_3_3_3" length=0.02641 units=km
New "Line.SMT_221109" phases=3 bus1="159512865.1.2.3" bus2="159512866.1.2.3" linecode="CABA08_3_3_3" length=0.04787 units=km
New "Line.SMT_221123" phases=3 bus1="159512865.1.2.3" bus2="121959842.1.2.3" linecode="CABA08_3_3_3" length=0.02422 units=km
New "Line.SMT_221130" phases=3 bus1="175863625.1.2.3" bus2="528913B.1.2.3" linecode="CABA08_3_3_3" length=0.02533 units=km
New "Line.SMT_221137" phases=3 bus1="175863625.1.2.3" bus2="528941B.1.2.3" linecode="CABA08_3_3_3" length=0.00900 units=km
New "Line.SMT_221144" phases=3 bus1="528871B.1.2.3" bus2="121960654.1.2.3" linecode="CAB103_3_3_3" length=0.03226 units=km
New "Line.SMT_221151" phases=3 bus1="528913B.1.2.3" bus2="175863626.1.2.3" linecode="CABA08_3_3_3" length=0.02817 units=km
New "Line.SMT_221158" phases=3 bus1="528927B.1.2.3" bus2="175863625.1.2.3" linecode="CABA08_3_3_3" length=0.00855 units=km
New "Line.SMT_221165" phases=3 bus1="528927B.1.2.3" bus2="151484983.1.2.3" linecode="CABA08_3_3_3" length=0.02618 units=km
New "Line.SMT_221179" phases=3 bus1="528948B.1.2.3" bus2="529242B.1.2.3" linecode="CABA08_3_3_3" length=0.02618 units=km
New "Line.SMT_221186" phases=3 bus1="121960647.1.2.3" bus2="528871B.1.2.3" linecode="CAB103_3_3_3" length=0.01701 units=km
New "Line.SMT_221193" phases=3 bus1="528990B.1.2.3" bus2="175863625.1.2.3" linecode="CABA08_3_3_3" length=0.02503 units=km
New "Line.SMT_221200" phases=3 bus1="159512866.1.2.3" bus2="121959856.1.2.3" linecode="CABA08_3_3_3" length=0.02908 units=km
New "Line.SMT_221207" phases=3 bus1="174042192.1.2.3" bus2="529025B.1.2.3" linecode="CABA08_3_3_3" length=0.03579 units=km
New "Line.SMT_221214" phases=3 bus1="529025B.1.2.3" bus2="529032B.1.2.3" linecode="CABA08_3_3_3" length=0.03043 units=km
New "Line.SMT_221221" phases=3 bus1="529032B.1.2.3" bus2="174042193.1.2.3" linecode="CABA08_3_3_3" length=0.01747 units=km
New "Line.SMT_221249" phases=3 bus1="529144B.1.2.3" bus2="2077355B.1.2.3" linecode="CAB103_3_3_3" length=0.02618 units=km
New "Line.SMT_221256" phases=3 bus1="529179B.1.2.3" bus2="121960311.1.2.3" linecode="CABA08_3_3_3" length=0.02310 units=km
New "Line.SMT_221263" phases=3 bus1="529186B.1.2.3" bus2="528990B.1.2.3" linecode="CABA08_3_3_3" length=0.02917 units=km
New "Line.SMT_221270" phases=3 bus1="175863624.1.2.3" bus2="529186B.1.2.3" linecode="CABA08_3_3_3" length=0.00944 units=km
New "Line.SMT_221277" phases=3 bus1="175863624.1.2.3" bus2="121960360.1.2.3" linecode="CAB102_3_3_3" length=0.03922 units=km
New "Line.SMT_221284" phases=3 bus1="175863623.1.2.3" bus2="175863624.1.2.3" linecode="CABA08_3_3_3" length=0.03215 units=km
New "Line.SMT_221291" phases=3 bus1="175863623.1.2.3" bus2="529214B.1.2.3" linecode="CABA08_3_3_3" length=0.03016 units=km
New "Line.SMT_221298" phases=3 bus1="121960633.1.2.3" bus2="529144B.1.2.3" linecode="CAB103_3_3_3" length=0.02618 units=km
New "Line.SMT_221305" phases=3 bus1="180048139.1.2.3" bus2="180048140.1.2.3" linecode="CAB102_3_3_3" length=0.02310 units=km
New "Line.SMT_221319" phases=3 bus1="121960311.1.2.3" bus2="529214B.1.2.3" linecode="CABA08_3_3_3" length=0.03707 units=km
New "Line.SMT_221326" phases=3 bus1="180048138.1.2.3" bus2="180048139.1.2.3" linecode="CAB103_3_3_3" length=0.00671 units=km
New "Line.SMT_221333" phases=3 bus1="160371925.1.2.3" bus2="529256B.1.2.3" linecode="CABA08_3_3_3" length=0.03823 units=km
New "Line.SMT_221340" phases=3 bus1="529256B.1.2.3" bus2="529557B.1.2.3" linecode="CABA08_3_3_3" length=0.02903 units=km
New "Line.SMT_221347" phases=3 bus1="160371922.1.2.3" bus2="160371924.1.2.3" linecode="CABA06_3_3_3" length=0.02301 units=km
New "Line.SMT_221354" phases=3 bus1="160371922.1.2.3" bus2="529242B.1.2.3" linecode="CABA08_3_3_3" length=0.02609 units=km
...
