IJAU11/GD_BT_2022124950_IJAU11_--MBS-1--T--.dss
New "LoadShape.PVIrrad_diaria" npts=24 interval=1 
~ mult = [0 0 0 0 0 0 0.1 0.2 0.3 0.5 0.8 0.9 1.0 1.0 0.99 0.9 0.7 0.4 0.1 0 0 0 0 0] 
New XYCurve.MyPvsT npts=4  xarray=[0  25  75  100]  yarray=[1.2 1.0 0.8  0.6] 
New XYCurve.MyEff npts=4  xarray=[0.1  0.2  0.4  1.0]  yarray=[0.86  0.9  0.93  0.97] 
New Tshape.MyTemp npts=24 interval=1 
~ temp=[25, 25, 25, 25, 25, 25, 25, 25, 35, 40, 45, 50, 60, 60, 55, 40, 35, 30, 25, 25, 25, 25, 25, 25] 

New "PVsystem.GD.MG.001.198.808" phases=1 bus1=1011268804.3.1.4 conn=Delta kv=0.22 pf=0.92 pmpp=24.003 kva=25.0 irradiance=0.98 
~ temperature=25 %cutin=0.1 %cutout=0.1 effcurve=Myeff P-TCurve=MyPvsT Daily=PVIrrad_diaria TDaily=MyTemp 
/*
New "PVsystem.GD.MG.001.196.353" phases=1 bus1=1004275425.1.2.4 conn=Delta kv=0.22 pf=0.92 pmpp=22.86 kva=23.0 irradiance=0.98 
~ temperature=25 %cutin=0.1 %cutout=0.1 effcurve=Myeff P-TCurve=MyPvsT Daily=PVIrrad_diaria TDaily=MyTemp 
*/
New "PVsystem.GD.MG.000.940.919" phases=3 bus1=1004324768.1.2.3.4 conn=Delta kv=0.22 pf=0.92 pmpp=22.86 kva=23.0 irradiance=0.98 
~ temperature=25 %cutin=0.1 %cutout=0.1 effcurve=Myeff P-TCurve=MyPvsT Daily=PVIrrad_diaria TDaily=MyTemp 

New "PVsystem.GD.MG.000.990.409" phases=3 bus1=1001007419.1.2.3.4 conn=Delta kv=0.22 pf=0.92 pmpp=22.86 kva=23.0 irradiance=0.98 
~ temperature=25 %cutin=0.1 %cutout=0.1 effcurve=Myeff P-TCurve=MyPvsT Daily=PVIrrad_diaria TDaily=MyTemp 

New "PVsystem.GD.MG.000.990.784" phases=3 bus1=1001007524.1.2.3.4 conn=Delta kv=0.22 pf=0.92 pmpp=22.86 kva=23.0 irradiance=0.98 
~ temperature=25 %cutin=0.1 %cutout=0.1 effcurve=Myeff P-TCurve=MyPvsT Daily=PVIrrad_diaria TDaily=MyTemp 

New "PVsystem.GD.MG.001.425.907" phases=1 bus1=1011365003.3.1.4 conn=Delta kv=0.22 pf=0.92 pmpp=38.1 kva=39.0 irradiance=0.98 
~ temperature=25 %cutin=0.1 %cutout=0.1 effcurve=Myeff P-TCurve=MyPvsT Daily=PVIrrad_diaria TDaily=MyTemp 
/*
New "PVsystem.GD.MG.000.333.875" phases=1 bus1=1001044344.3.1.4 conn=Delta kv=0.22 pf=0.92 pmpp=22.86 kva=23.0 irradiance=0.98 
~ temperature=25 %cutin=0.1 %cutout=0.1 effcurve=Myeff P-TCurve=MyPvsT Daily=PVIrrad_diaria TDaily=MyTemp 

New "PVsystem.GD.MG.000.026.305" phases=1 bus1=1001045891.1.2.4 conn=Delta kv=0.22 pf=0.92 pmpp=24.003 kva=25.0 irradiance=0.98 
~ temperature=25 %cutin=0.1 %cutout=0.1 effcurve=Myeff P-TCurve=MyPvsT Daily=PVIrrad_diaria TDaily=MyTemp 

New "PVsystem.GD.MG.000.000.897" phases=3 bus1=1011540795.1.2.3.4 conn=Delta kv=0.22 pf=0.92 pmpp=22.86 kva=23.0 irradiance=0.98 
~ temperature=25 %cutin=0.1 %cutout=0.1 effcurve=Myeff P-TCurve=MyPvsT Daily=PVIrrad_diaria TDaily=MyTemp 

New "PVsystem.GD.MG.000.060.510" phases=1 bus1=1011039422.1.2.4 conn=Delta kv=0.22 pf=0.92 pmpp=5.715 kva=6.0 irradiance=0.98 
~ temperature=25 %cutin=0.1 %cutout=0.1 effcurve=Myeff P-TCurve=MyPvsT Daily=PVIrrad_diaria TDaily=MyTemp 

New "PVsystem.GD.MG.001.426.573" phases=3 bus1=1001019046.1.2.3.4 conn=Delta kv=0.22 pf=0.92 pmpp=76.2 kva=77.0 irradiance=0.98 
~ temperature=25 %cutin=0.1 %cutout=0.1 effcurve=Myeff P-TCurve=MyPvsT Daily=PVIrrad_diaria TDaily=MyTemp 

New "PVsystem.GD.MG.000.096.274" phases=1 bus1=1001010093.1.4 conn=Wye kv=0.22 pf=0.92 pmpp=22.86 kva=23.0 irradiance=0.98 
~ temperature=25 %cutin=0.1 %cutout=0.1 effcurve=Myeff P-TCurve=MyPvsT Daily=PVIrrad_diaria TDaily=MyTemp 

New "PVsystem.GD.MG.000.126.199" phases=1 bus1=1010100987.2.3.4 conn=Delta kv=0.22 pf=0.92 pmpp=24.003 kva=25.0 irradiance=0.98 
~ temperature=25 %cutin=0.1 %cutout=0.1 effcurve=Myeff P-TCurve=MyPvsT Daily=PVIrrad_diaria TDaily=MyTemp 

New "PVsystem.GD.MG.001.430.557" phases=1 bus1=1011382069.1.2.4 conn=Delta kv=0.22 pf=0.92 pmpp=24.003 kva=25.0 irradiance=0.98 
~ temperature=25 %cutin=0.1 %cutout=0.1 effcurve=Myeff P-TCurve=MyPvsT Daily=PVIrrad_diaria TDaily=MyTemp 

New "PVsystem.GD.MG.000.068.229" phases=3 bus1=1001041194.1.2.3.4 conn=Delta kv=0.22 pf=0.92 pmpp=34.29 kva=35.0 irradiance=0.98 
~ temperature=25 %cutin=0.1 %cutout=0.1 effcurve=Myeff P-TCurve=MyPvsT Daily=PVIrrad_diaria TDaily=MyTemp 

New "PVsystem.GD.MG.000.187.066" phases=1 bus1=1001044953.2.3.4 conn=Delta kv=0.22 pf=0.92 pmpp=22.86 kva=23.0 irradiance=0.98 
~ temperature=25 %cutin=0.1 %cutout=0.1 effcurve=Myeff P-TCurve=MyPvsT Daily=PVIrrad_diaria TDaily=MyTemp 

New "PVsystem.GD.MG.001.310.307" phases=1 bus1=1011354228.2.3.4 conn=Delta kv=0.22 pf=0.92 pmpp=24.003 kva=25.0 irradiance=0.98 
~ temperature=25 %cutin=0.1 %cutout=0.1 effcurve=Myeff P-TCurve=MyPvsT Daily=PVIrrad_diaria TDaily=MyTemp 

New "PVsystem.GD.MG.001.198.822" phases=1 bus1=1011354226.1.2.4 conn=Delta kv=0.22 pf=0.92 pmpp=24.003 kva=25.0 irradiance=0.98 
~ temperature=25 %cutin=0.1 %cutout=0.1 effcurve=Myeff P-TCurve=MyPvsT Daily=PVIrrad_diaria TDaily=MyTemp 

New "PVsystem.GD.MG.001.213.842" phases=3 bus1=1011443940.1.2.3.4 conn=Delta kv=0.22 pf=0.92 pmpp=57.15 kva=58.0 irradiance=0.98 
~ temperature=25 %cutin=0.1 %cutout=0.1 effcurve=Myeff P-TCurve=MyPvsT Daily=PVIrrad_diaria TDaily=MyTemp 

...